
**** 03/09/12 01:59:54 ******* PSpice 16.3.0 (June 2009) ****** ID# 0 ********

 ** Profile: "SCHEMATIC1-dcsweep"  [ X:\PROGETTO_ELETTRONICA\STADIO_2\Commonsource-PSpiceFiles\SCHEMATIC1\dcsweep.sim ] 


 ****     CIRCUIT DESCRIPTION


******************************************************************************




** Creating circuit file "dcsweep.cir" 
** WARNING: THIS AUTOMATICALLY GENERATED FILE MAY BE OVERWRITTEN BY SUBSEQUENT SIMULATIONS

*Libraries: 
* Profile Libraries :
* Local Libraries :
.LIB "../../../commonsource-pspicefiles/schematic1/time/fairchild.lib" 
* From [PSPICE NETLIST] section of C:\Cadence\SPB_16.3\tools\PSpice\PSpice.ini file:
.lib "nom.lib" 

*Analysis directives: 
.DC LIN I_I2 0.001 1 0.01 
.PROBE V(alias(*)) I(alias(*)) W(alias(*)) D(alias(*)) NOISE(alias(*)) 
.INC "..\SCHEMATIC1.net" 



**** INCLUDING SCHEMATIC1.net ****
* source COMMONSOURCE
V_V5         N11644 0 80
R_R5         0 N11634  565 TC=0,0 
V_V6         N11522 0  
+SIN 20 0.3 30k 0 0 0
X_M5         N11634 N11522 N19535 BSS123/FAI
R_R6         N11634 N11644  1k TC=0,0 
I_I2         N19535 0 DC 1Adc  

**** RESUMING dcsweep.cir ****
.END

**** 03/09/12 01:59:54 ******* PSpice 16.3.0 (June 2009) ****** ID# 0 ********

 ** Profile: "SCHEMATIC1-dcsweep"  [ X:\PROGETTO_ELETTRONICA\STADIO_2\Commonsource-PSpiceFiles\SCHEMATIC1\dcsweep.sim ] 


 ****     Diode MODEL PARAMETERS


******************************************************************************




               X_M5.DDS        X_M5.DBODY      X_M5.DGD        
          IS   10.000000E-15  140.000000E-15   10.000000E-15 
          BV  100.16                                         
          RS                     .04                         
          TT                  100.000000E-09                 
         CJO   23.000000E-12                   20.000000E-12 
          VJ     .8                              .4          
           M     .36                             .3          


**** 03/09/12 01:59:54 ******* PSpice 16.3.0 (June 2009) ****** ID# 0 ********

 ** Profile: "SCHEMATIC1-dcsweep"  [ X:\PROGETTO_ELETTRONICA\STADIO_2\Commonsource-PSpiceFiles\SCHEMATIC1\dcsweep.sim ] 


 ****     MOSFET MODEL PARAMETERS


******************************************************************************




               X_M5.DMOS       X_M5.INTER      
               NMOS            NMOS            
       LEVEL    3               1            
           L  100.000000E-06  100.000000E-06 
           W  100.000000E-06  100.000000E-06 
         VTO    1.295216        0            
          KP     .5676         10            
       GAMMA    0               0            
         PHI     .6              .6          
      LAMBDA    0               0            
          IS   10.000000E-15   10.000000E-15 
          JS    0               0            
          PB     .8              .8          
        PBSW     .8              .8          
          CJ    0               0            
        CJSW    0               0            
        CGSO    0               0            
        CGDO    0               0            
        CGBO    0               0            
         TOX  100.000000E-09    0            
          XJ    0               0            
       UCRIT   10.000000E+03   10.000000E+03 
        VMAX  220.000000E+03                 
       THETA     .086                        
      DIOMOD    1               1            
         VFB    0               0            
        LETA    0               0            
        WETA    0               0            
          U0    0               0            
        TEMP    0               0            
         VDD    5               5            
       XPART    0               0            



          JOB CONCLUDED

**** 03/09/12 01:59:54 ******* PSpice 16.3.0 (June 2009) ****** ID# 0 ********

 ** Profile: "SCHEMATIC1-dcsweep"  [ X:\PROGETTO_ELETTRONICA\STADIO_2\Commonsource-PSpiceFiles\SCHEMATIC1\dcsweep.sim ] 


 ****     JOB STATISTICS SUMMARY


******************************************************************************



  Total job time (using Solver 1)   =         .30
