
**** 01/27/12 17:56:07 ******* PSpice 16.2.0 (Oct 2008) ******* ID# 0 ********

 ** Profile: "SCHEMATIC1-time"  [ Y:\ORCAD\progetto\prove\stadio 3_caso a -pspicefiles\schematic1\time.sim ] 


 ****     CIRCUIT DESCRIPTION


******************************************************************************




** Creating circuit file "time.cir" 
** WARNING: THIS AUTOMATICALLY GENERATED FILE MAY BE OVERWRITTEN BY SUBSEQUENT SIMULATIONS

*Libraries: 
* Profile Libraries :
* Local Libraries :
.LIB "../../../stadio 3_caso a -pspicefiles/pwrmos.lib" 
.LIB "../../../stadio 3_caso a -pspicefiles/stadio 3_caso a .lib" 
* From [PSPICE NETLIST] section of C:\OrCAD\OrCAD_16.2\tools\PSpice\PSpice.ini file:

*Analysis directives: 
.TRAN  0 500us 0 1e-6 
.PROBE V(alias(*)) I(alias(*)) W(alias(*)) D(alias(*)) NOISE(alias(*)) 
.INC "..\SCHEMATIC1.net" 



**** INCLUDING SCHEMATIC1.net ****
* source STADIO 3_CASO A 
I_I1         N00276 0 DC 3.8Adc  
V_V3         N09676 0 33Vdc
R_R1         0 N20318  1k TC=0,0 
V_V2         N00336 0 64Vdc
V_V4         N09730 0 40Vdc
C_C1         N00276 N10701  2u  TC=0,0 
M_M3         N00336 N20083 N00276 N00276 IRFP250
M_M2         N09730 N09676 N09706 N09706 IRFP250
V_V5         N10127 N20318  
+SIN 0 31 20k 0 0 0
R_R_L         0 N10701  8 TC=0,0 
R_Rs1         0 N09706  7 TC=0,0 
C_C2         N10127 N20083  1u  TC=0,0 

**** RESUMING time.cir ****
.END

ERROR -- Node N20083 is floating