
**** 03/06/12 01:34:35 ******** PSpice Lite (June 2009) ******* ID# 10813 ****

 ** Profile: "SCHEMATIC1-bias"  [ C:\DOCUMENTS AND SETTINGS\ALE\DESKTOP\CoppiaDifferenziale\cacca-pspicefiles\schematic1\bias.sim ] 


 ****     CIRCUIT DESCRIPTION


******************************************************************************




** Creating circuit file "bias.cir" 
** WARNING: THIS AUTOMATICALLY GENERATED FILE MAY BE OVERWRITTEN BY SUBSEQUENT SIMULATIONS

*Libraries: 
* Profile Libraries :
* Local Libraries :
.LIB "C:/OrCAD/OrCAD_16.3_Demo/tools/pspice/library/fairchild.lib" 
* From [PSPICE NETLIST] section of C:\OrCAD\OrCAD_16.3_Demo\tools\PSpice\PSpice.ini file:
.lib "nomd.lib" 

*Analysis directives: 
.TRAN  0 100us 0 
.PROBE V(alias(*)) I(alias(*)) W(alias(*)) D(alias(*)) NOISE(alias(*)) 
.INC "..\SCHEMATIC1.net" 



**** INCLUDING SCHEMATIC1.net ****
* source CACCA
V_V2         N14705 0  
+SIN 0 .1m 30kHz 0 0 0
R_R1         N14617 N14581  .5k TC=0,0 
R_R2         N14621 N14581  .5k TC=0,0 
X_M2         N14617 0 N14625 2N7000/FAI
V_V1         N14581 0 4
X_M1         N14621 N14705 N14625 2N7000/FAI
R_R3         0 N16293  90 TC=0,0 
I_I1         N14625 0 DC .01Adc  

**** RESUMING bias.cir ****
.END

ERROR -- Less than 2 connections at node N16293